<?xml version="1.0" encoding="UTF-8"?>
<net version="1.16" junctionCornerDetail="5" limitTurnSpeed="5.50" xmlns:xsi="http://www.w3.org/2001/XMLSchema-instance" xsi:noNamespaceSchemaLocation="http://sumo.dlr.de/xsd/net_file.xsd">

    <location netOffset="0.00,0.00" convBoundary="0.00,0.00,1000.00,0.00" origBoundary="-10000000000.00,-10000000000.00,10000000000.00,10000000000.00" projParameter="!"/>

    <edge id="edge1" from="junction1" to="junction2" priority="1" numLanes="2" speed="13.89">
        <lane id="edge1_0" index="0" speed="13.89" length="1000.00" shape="0.00,-1.60 1000.00,-1.60"/>
        <lane id="edge1_1" index="1" speed="13.89" length="1000.00" shape="0.00,1.60 1000.00,1.60"/>
    </edge>

    <junction id="junction1" type="dead_end" x="0.00" y="0.00" incLanes="" intLanes="" shape="0.00,3.20 0.00,-3.20"/>
    <junction id="junction2" type="dead_end" x="1000.00" y="0.00" incLanes="edge1_0 edge1_1" intLanes="" shape="1000.00,-3.20 1000.00,3.20"/>

</net>
