<?xml version="1.0" encoding="UTF-8"?>
<net version="1.16" junctionCornerDetail="5" limitTurnSpeed="5.50" xmlns:xsi="http://www.w3.org/2001/XMLSchema-instance" xsi:noNamespaceSchemaLocation="http://sumo.dlr.de/xsd/net_file.xsd">

    <location netOffset="0.00,0.00" convBoundary="0.00,0.00,1500.00,10.50" origBoundary="-10000000000.00,-10000000000.00,10000000000.00,10000000000.00" projParameter="!"/>

    <!-- Eastbound road (main direction) -->
    <edge id="eastbound" from="west" to="east" priority="1">
        <lane id="eastbound_0" index="0" speed="25.00" length="1500.00" shape="0.00,1.75 1500.00,1.75"/>
        <lane id="eastbound_1" index="1" speed="25.00" length="1500.00" shape="0.00,5.25 1500.00,5.25"/>
    </edge>
    
    <!-- Westbound road (opposite direction) -->
    <edge id="westbound" from="east" to="west" priority="1">
        <lane id="westbound_0" index="0" speed="25.00" length="1500.00" shape="1500.00,8.75 0.00,8.75"/>
    </edge>

    <junction id="west" type="dead_end" x="0.00" y="5.25" incLanes="westbound_0" intLanes="" shape="0.00,10.50 0.00,0.00"/>
    <junction id="east" type="dead_end" x="3500.00" y="5.25" incLanes="eastbound_0 eastbound_1" intLanes="" shape="1500.00,0.00 1500.00,10.50"/>

</net>