<?xml version="1.0" encoding="UTF-8"?>
<routes xmlns:xsi="http://www.w3.org/2001/XMLSchema-instance" xsi:noNamespaceSchemaLocation="http://sumo.dlr.de/xsd/routes_file.xsd">
    
    <!-- Eastbound route (west to east) -->
    <route id="route_eastbound" edges="eastbound"/>
    
    <!-- Westbound route (east to west) -->
    <route id="route_westbound" edges="westbound"/>
    
    <!-- Vehicle types -->
    <vType id="ego_type" maxSpeed="30" accel="3.0" decel="4.5" sigma="0.0" length="4.5" minGap="2.0"/>
    <vType id="slow_type" maxSpeed="6" accel="1.0" decel="3.0" sigma="0.0" length="4.5" minGap="2.0"/>
    <vType id="oncoming_type" maxSpeed="20" accel="2.0" decel="4.0" sigma="0.0" length="4.5" minGap="2.0"/>
    
    <!-- Ego vehicle: fast, wants to overtake -->
    <vehicle id="ego" type="ego_type" route="route_eastbound" depart="0" departLane="0" departPos="100" departSpeed="20">
        
        <param key="lcKeepRight" value="1.0"/>
        <param key="lcAssertive" value="1.0"/>
    </vehicle>
    
    <!-- Front vehicle: very slow, persistent -->
    <vehicle id="front" type="slow_type" route="route_eastbound" depart="0" departLane="0" departPos="250" departSpeed="4">
        <param key="lcStrategic" value="0.0"/>
        <param key="lcKeepRight" value="1.0"/>
    </vehicle>
    
    <!-- Oncoming vehicles with staggered timing -->
    <vehicle id="oncoming1" type="oncoming_type" route="route_westbound" depart="30" departPos="400" departSpeed="16">
        <param key="lcStrategic" value="0.0"/>
    </vehicle>
    
    <vehicle id="oncoming2" type="oncoming_type" route="route_westbound" depart="60" departPos="300" departSpeed="15">
        <param key="lcStrategic" value="0.0"/>
    </vehicle>
    
</routes>